
     RDKit          3D

 13 13  0  0  0  0  0  0  0  0999 V2000
   -2.6168   -2.2434    0.1193 C   0  0  0  0  0  0  0  0  0  0  0  0
   -1.7218   -1.1382   -0.3558 C   0  0  0  0  0  0  0  0  0  0  0  0
   -1.5487   -0.8447   -1.5318 O   0  0  0  0  0  0  0  0  0  0  0  0
   -1.1604   -0.5076    0.7490 O   0  0  0  0  0  0  0  0  0  0  0  0
   -0.2382    0.4806    0.3924 C   0  0  0  0  0  0  0  0  0  0  0  0
   -0.6912    1.8037    0.4201 C   0  0  0  0  0  0  0  0  0  0  0  0
    0.1853    2.8395    0.1030 C   0  0  0  0  0  0  0  0  0  0  0  0
    1.5097    2.5544   -0.2278 C   0  0  0  0  0  0  0  0  0  0  0  0
    1.9643    1.2315   -0.2360 C   0  0  0  0  0  0  0  0  0  0  0  0
    1.0951    0.1762    0.0819 C   0  0  0  0  0  0  0  0  0  0  0  0
    1.5788   -1.2294    0.1034 C   0  0  0  0  0  0  0  0  0  0  0  0
    0.9514   -2.2173    0.4380 O   0  0  0  0  0  0  0  0  0  0  0  0
    2.8594   -1.3410   -0.2998 O   0  0  0  0  0  0  0  0  0  0  0  0
  1  2  1  0
  2  3  2  0
  2  4  1  0
  4  5  1  0
  5  6  2  0
  6  7  1  0
  7  8  2  0
  8  9  1  0
  9 10  2  0
 10 11  1  0
 11 12  2  0
 11 13  1  0
 10  5  1  0
M  END
$$$$
